%mem=100Gb
%nproc=32
%chk=A7_property_B3LYP_def2-TZVP_solvent.chk
#B3LYP/gen gfinput scf=(maxcycle=1000,conver=4) Polar CPHF=RdFreq scrf=(solvent=THF) pseudo=read

propriedade

0 1
Ru      -0.879529      -0.004921       0.253265
Cl      -3.317377      -0.017055       1.016779
P       -1.002757      -1.410242      -1.717022
P       -1.023410       1.391118      -1.729130
P       -0.554348      -1.414156       2.178573
P       -0.618483       1.395908       2.195837
O        8.512169       0.081986      -1.216055
O        7.796392       0.064365      -3.259446
N        7.606667       0.069293      -2.045606
N        3.906357       0.034599      -2.095410
C        1.041916       0.015994      -0.112564
C        2.252978       0.027490      -0.385878
C        3.609222       0.038875      -0.759564
C        4.650321       0.054573       0.215928
C        5.971366       0.064806      -0.185868
C        6.241353       0.059517      -1.563874
C        5.174920       0.044594      -2.474641
C       -0.481572      -0.011057      -2.844959
C       -0.881577      -0.023646       3.385876
C        0.156042      -2.822117      -1.990750
C        1.464523      -2.654367      -2.472851
C        2.315263      -3.758187      -2.603692
C        1.878362      -5.036794      -2.247211
C        0.579957      -5.210840      -1.754808
C       -0.274101      -4.112967      -1.628078
C       -2.553563      -2.042318      -2.504366
C       -2.501305      -2.610887      -3.792319
C       -3.664279      -3.076796      -4.407275
C       -4.894606      -2.985121      -3.743491
C       -4.953583      -2.420787      -2.467734
C       -3.789766      -1.946442      -1.847725
C        0.115445       2.815746      -2.026906
C        1.430662       2.655854      -2.493847
C        2.265876       3.768729      -2.646191
C        1.807051       5.049456      -2.326701
C        0.501576       5.216464      -1.851278
C       -0.337075       4.109371      -1.703770
C       -2.585239       1.992991      -2.517835
C       -2.551339       2.523705      -3.822466
C       -3.723631       2.968356      -4.435304
C       -4.944750       2.893598      -3.752505
C       -4.985313       2.367796      -2.459716
C       -3.812066       1.914486      -1.841656
C        1.117788      -2.090182       2.567749
C        1.809246      -1.826698       3.760262
C        3.057553      -2.412401       4.002724
C        3.626645      -3.270417       3.058403
C        2.944977      -3.537407       1.865546
C        1.703580      -2.947667       1.619023
C       -1.648878      -2.813727       2.683816
C       -2.575808      -3.343401       1.774768
C       -3.388614      -4.421438       2.141747
C       -3.288858      -4.972229       3.422338
C       -2.369370      -4.445432       4.337052
C       -1.549921      -3.375519       3.969207
C       -1.795880       2.723439       2.707044
C       -1.885058       3.136677       4.047602
C       -2.755628       4.166914       4.412656
C       -3.539270       4.801061       3.441807
C       -3.453288       4.396565       2.106606
C       -2.589842       3.358534       1.741709
C        1.010900       2.158446       2.608254
C        1.631209       2.944751       1.621607
C        2.834819       3.601193       1.890882
C        3.441472       3.472597       3.144977
C        2.835928       2.687089       4.129814
C        1.626426       2.035730       3.864243
H        4.387067       0.057884       1.273802
H        6.793911       0.076584       0.529422
H        5.388109       0.040910      -3.547420
H        0.613801      -0.002415      -2.909435
H       -0.912499      -0.019011      -3.856252
H       -1.961234      -0.051233       3.591318
H       -0.339789      -0.022433       4.341290
H        1.848050      -1.667672      -2.735634
H        3.328892      -3.610133      -2.984505
H        2.546206      -5.895570      -2.351833
H        0.227798      -6.205600      -1.470475
H       -1.286075      -4.268218      -1.246272
H       -1.547128      -2.696614      -4.318780
H       -3.611032      -3.514843      -5.407272
H       -5.804391      -3.353274      -4.224784
H       -5.911101      -2.342252      -1.946393
H       -3.845010      -1.484916      -0.859028
H        1.831546       1.669222      -2.729231
H        3.284641       3.626159      -3.015244
H        2.463000       5.915215      -2.447742
H        0.131358       6.212875      -1.597342
H       -1.355946       4.260423      -1.339324
H       -1.604368       2.596625      -4.363709
H       -3.685076       3.376582      -5.448507
H       -5.861871       3.244949      -4.232457
H       -5.935601       2.302802      -1.923502
H       -3.852314       1.481832      -0.839361
H        1.386339      -1.164942       4.517284
H        3.582986      -2.195592       4.936244
H        4.600653      -3.728135       3.249048
H        3.384728      -4.201649       1.117671
H        1.190024      -3.152109       0.677584
H       -2.670738      -2.899361       0.784253
H       -4.106303      -4.826434       1.423847
H       -3.926448      -5.812267       3.709569
H       -2.285907      -4.872448       5.339691
H       -0.825716      -2.985971       4.689081
H       -1.273041       2.660290       4.817601
H       -2.819633       4.477145       5.458700
H       -4.217887       5.608646       3.727954
H       -4.066847       4.883349       1.344360
H       -2.542272       3.028199       0.703914
H        1.175415       3.039744       0.634455
H        3.303497       4.208836       1.113036
H        4.385945       3.981694       3.353212
H        3.303505       2.579103       5.111775
H        1.171584       1.433704       4.652828

1064 nm

H     0
S   3   1.00
     34.0613410              0.60251978D-02
      5.1235746              0.45021094D-01
      1.1646626              0.20189726
S   1   1.00
      0.32723041             1.0000000
S   1   1.00
      0.10307241             1.0000000
P   1   1.00
      0.8000000              1.0000000
****
C     0
S   6   1.00
  13575.3496820              0.22245814352D-03
   2035.2333680              0.17232738252D-02
    463.22562359             0.89255715314D-02
    131.20019598             0.35727984502D-01
     42.853015891            0.11076259931
     15.584185766            0.24295627626
S   2   1.00
      6.2067138508           0.41440263448
      2.5764896527           0.23744968655
S   1   1.00
      0.57696339419          1.0000000
S   1   1.00
      0.22972831358          1.0000000
S   1   1.00
      0.95164440028D-01      1.0000000
P   4   1.00
     34.697232244            0.53333657805D-02
      7.9582622826           0.35864109092D-01
      2.3780826883           0.14215873329
      0.81433208183          0.34270471845
P   1   1.00
      0.28887547253           .46445822433
P   1   1.00
      0.10056823671           .24955789874
D   1   1.00
      1.09700000             1.0000000
D   1   1.00
      0.31800000             1.0000000
F   1   1.00
      0.76100000             1.0000000
****
N     0
S   6   1.00
  19730.8006470              0.21887984991D-03
   2957.8958745              0.16960708803D-02
    673.22133595             0.87954603538D-02
    190.68249494             0.35359382605D-01
     62.295441898            0.11095789217
     22.654161182            0.24982972552
S   2   1.00
      8.9791477428           0.40623896148
      3.6863002370           0.24338217176
S   1   1.00
      0.84660076805          1.0000000
S   1   1.00
      0.33647133771          1.0000000
S   1   1.00
      0.13647653675          1.0000000
P   4   1.00
     49.200380510            0.55552416751D-02
     11.346790537            0.38052379723D-01
      3.4273972411           0.14953671029
      1.1785525134           0.34949305230
P   1   1.00
      0.41642204972           .45843153697
P   1   1.00
      0.14260826011           .24428771672
D   1   1.00
      1.65400000             1.0000000
D   1   1.00
      0.46900000             1.0000000
F   1   1.00
      1.09300000             1.0000000
****
O     0
S   6   1.00
  27032.3826310              0.21726302465D-03
   4052.3871392              0.16838662199D-02
    922.32722710             0.87395616265D-02
    261.24070989             0.35239968808D-01
     85.354641351            0.11153519115
     31.035035245            0.25588953961
S   2   1.00
     12.260860728            0.39768730901
      4.9987076005           0.24627849430
S   1   1.00
      1.1703108158           1.0000000
S   1   1.00
      0.46474740994          1.0000000
S   1   1.00
      0.18504536357          1.0000000
P   4   1.00
     63.274954801            0.60685103418D-02
     14.627049379            0.41912575824D-01
      4.4501223456           0.16153841088
      1.5275799647           0.35706951311
P   1   1.00
      0.52935117943           .44794207502
P   1   1.00
      0.17478421270           .24446069663
D   1   1.00
      2.31400000             1.0000000
D   1   1.00
      0.64500000             1.0000000
F   1   1.00
      1.42800000             1.0000000
****
P     0
S   7   1.00
  52426.9992330              0.55207164100D-03
   7863.2660552              0.42678595308D-02
   1789.5227333              0.21931529186D-01
    506.27300165             0.85667168373D-01
    164.60698546             0.24840686605
     58.391918722            0.46336753971
     21.643663201            0.35350558156
S   3   1.00
     99.013837620            0.21895679958D-01
     30.550439817            0.95650470295D-01
      5.4537087661          -0.29454270186
S   2   1.00
      2.6503362563           1.3294381200
      1.2726688867           0.66109396473
S   1   1.00
      0.31645005203          1.0000000
S   1   1.00
      0.11417466938          1.0000000
P   5   1.00
    472.27219248             0.25710623052D-02
    111.58882756             0.20250297999D-01
     35.445936418            0.91580716787D-01
     12.990776875            0.25749454014
      5.0486221658           0.42862899758
P   1   1.00
      1.9934049566            .34359817849
P   1   1.00
      0.66527284430          1.0000000
P   1   1.00
      0.25516832128          1.0000000
P   1   1.00
      0.90357762251D-01      1.0000000
D   2   1.00
      3.12000000             0.20000000
      0.648000000            1.00000000
D   1   1.00
      0.218000000            1.0000000
F   1   1.00
      0.452000000            1.0000000
****
Cl     0
S   7   1.00
  69507.9909450              0.54314897497D-03
  10426.1568800              0.41990463961D-02
   2373.2334061              0.21592141679D-01
    671.56420071             0.84598850094D-01
    218.41999790             0.24757249724
     77.572249714            0.47016930228
     28.888815277            0.37436370716
S   3   1.00
    127.10527185             0.25182166603D-01
     39.339582961            0.10786112456
      7.6740679989          -0.27408821574
S   2   1.00
      3.8745627630           1.3213875014
      1.8385832573           0.68636955368
S   1   1.00
      0.50229057542          1.0000000
S   1   1.00
      0.17962723420          1.0000000
P   5   1.00
    666.50423284             0.23632663836D-02
    157.64241690             0.18879300374D-01
     50.262520978            0.87206341273D-01
     18.536078105            0.25285612970
      7.2940532777           0.43507154820
P   1   1.00
      2.9433248995            .35026513165
P   1   1.00
      1.0404970818           1.0000000
P   1   1.00
      0.38456415080          1.0000000
P   1   1.00
      0.13069642732          1.0000000
D   2   1.00
      4.61000000             0.20000000
      1.01100000             1.00000000
D   1   1.00
      0.339000000            1.0000000
F   1   1.00
      0.706000000            1.0000000
****
Ru     0
S   2   1.00
     16.000000000           -0.20634002919
     13.910581694            0.33550437725
S   1   1.00
      4.7967971407           1.0000000
S   1   1.00
      1.1555425594           1.0000000
S   1   1.00
      0.52455741182          1.0000000
S   1   1.00
      0.10734572646          1.0000000
S   1   1.00
      0.39432760192D-01      1.0000000
P   4   1.00
     11.187208671            0.53225073263D-01
      6.2477688734          -0.22731662050
      1.6279472859           0.47869486056
      0.79326493538          0.50213311567
P   1   1.00
      0.36707276865          1.0000000
P   1   1.00
      0.11500000000          1.0000000
P   1   1.00
      0.37000000000D-01      1.0000000
D   3   1.00
      5.7341846619          -0.35266111560D-01
      2.2483686294           0.21802502222
      0.98376978359          0.44709565013
D   1   1.00
      0.40379445583          1.0000000
D   1   1.00
      0.14978618173          1.0000000
F   1   1.00
      0.9431400              1.0000000
****

RU     0
RU-ECP     3     28
f potential
  2
2     11.3600000            -28.34061627
2      5.6800000             -4.94462923
s-f potential
  4
2     11.1052693            209.82297122
2      5.4147454             30.65472642
2     11.3600000             28.34061627
2      5.6800000              4.94462923
p-f potential
  4
2      9.7712707            146.33618228
2      5.0739908             24.12787723
2     11.3600000             28.34061627
2      5.6800000              4.94462923
d-f potential
  4
2      7.6714231             67.51589667
2      4.1365647              9.87010415
2     11.3600000             28.34061627
2      5.6800000              4.94462923

